LTspice 24.1.9 for Windows
Circuit: C:\Users\Tuti\Desktop\UNSAM\APS\Proyectos\Trabajos Semanales\TS6 - Filtros pasivos RLC\Draft2.net
Start Time: Sun Nov  9 18:26:54 2025
solver = Normal
Maximum thread count: 16
tnom = 27
temp = 27
method = trap
.OP point found by inspection.
Total elapsed time: 0.029 seconds.

Files loaded:
C:\Users\Tuti\Desktop\UNSAM\APS\Proyectos\Trabajos Semanales\TS6 - Filtros pasivos RLC\Draft2.net

